    101 'GENROU' 1     6.5000      0.60000E-01   0.65       0.20000      49.0000       0.0000       1.8000       1.7500      0.60000     1.7     	0.25000      0.15000      0.90000E-01  0.38000	  /
    101 'GENROU' 2     6.5000      0.60000E-01   0.65       0.20000      49.0000       0.0000       1.8000       1.7500      0.60000     1.7     	0.25000      0.15000      0.90000E-01  0.38000    /
    101 'GENROU' 3     6.5000      0.60000E-01   0.65       0.20000      49.0000       0.0000       1.8000       1.7500      0.60000     1.7     	0.25000      0.15000      0.90000E-01  0.38000    /
    101 'GENROU' 4     6.5000      0.60000E-01   0.65       0.20000      49.0000       0.0000       1.8000       1.7500      0.60000     1.7     	0.25000      0.15000      0.90000E-01  0.38000    /
    102 'GENROU' 1     6.5000      0.60000E-01   0.65       0.20000      49.0000       0.0000       1.8000       1.7500      0.60000     1.7     	0.25000      0.15000      0.90000E-01  0.38000    /
    102 'GENROU' 2     6.5000      0.60000E-01   0.65       0.20000      49.0000       0.0000       1.8000       1.7500      0.60000     1.7     	0.25000      0.15000      0.90000E-01  0.38000    /
    102 'GENROU' 3     6.5000      0.60000E-01   0.65       0.20000      49.0000       0.0000       1.8000       1.7500      0.60000     1.7     	0.25000      0.15000      0.90000E-01  0.38000    /
    102 'GENROU' 4     6.5000      0.60000E-01   0.65       0.20000      49.0000       0.0000       1.8000       1.7500      0.60000     1.7     	0.25000      0.15000      0.90000E-01  0.38000    /
    107 'GENROU' 1     6.5000      0.60000E-01   0.65       0.20000      49.0000       0.0000       1.8000       1.7500      0.60000     1.7     	0.25000      0.15000      0.90000E-01  0.38000    /
    107 'GENROU' 2     6.5000      0.60000E-01   0.65       0.20000      49.0000       0.0000       1.8000       1.7500      0.60000     1.7     	0.25000      0.15000      0.90000E-01  0.38000    /
    107 'GENROU' 3     6.5000      0.60000E-01   0.65       0.20000      49.0000       0.0000       1.8000       1.7500      0.60000     1.7     	0.25000      0.15000      0.90000E-01  0.38000    /
    113 'GENROU' 1     6.5000      0.60000E-01   0.65       0.20000      49.0000       0.0000       1.8000       1.7500      0.60000     1.7     	0.25000      0.15000      0.90000E-01  0.38000    /
    113 'GENROU' 2     6.5000      0.60000E-01   0.65       0.20000      49.0000       0.0000       1.8000       1.7500      0.60000     1.7     	0.25000      0.15000      0.90000E-01  0.38000    /
    113 'GENROU' 3     6.5000      0.60000E-01   0.65       0.20000      49.0000       0.0000       1.8000       1.7500      0.60000     1.7     	0.25000      0.15000      0.90000E-01  0.38000    /
    114 'GENROU' 1     6.5000      0.60000E-01   0.65       0.20000      49.0000       0.0000       1.8000       1.7500      0.60000     1.7     	0.25000      0.15000      0.90000E-01  0.38000    /
    115 'GENROU' 1     6.5000      0.60000E-01   0.65       0.20000      49.0000       0.0000       1.8000       1.7500      0.60000     1.7     	0.25000      0.15000      0.90000E-01  0.38000    /
    115 'GENROU' 2     6.5000      0.60000E-01   0.65       0.20000      49.0000       0.0000       1.8000       1.7500      0.60000     1.7     	0.25000      0.15000      0.90000E-01  0.38000    /
    115 'GENROU' 3     6.5000      0.60000E-01   0.65       0.20000      49.0000       0.0000       1.8000       1.7500      0.60000     1.7     	0.25000      0.15000      0.90000E-01  0.38000    /
    115 'GENROU' 4     6.5000      0.60000E-01   0.65       0.20000      49.0000       0.0000       1.8000       1.7500      0.60000     1.7     	0.25000      0.15000      0.90000E-01  0.38000    /
    115 'GENROU' 5     6.5000      0.60000E-01   0.65       0.20000      49.0000       0.0000       1.8000       1.7500      0.60000     1.7     	0.25000      0.15000      0.90000E-01  0.38000    /
    115 'GENROU' 6     6.5000      0.60000E-01   0.65       0.20000      49.0000       0.0000       1.8000       1.7500      0.60000     1.7     	0.25000      0.15000      0.90000E-01  0.38000    /
    116 'GENROU' 1     6.5000      0.60000E-01   0.65       0.20000      49.0000       0.0000       1.8000       1.7500      0.60000     1.7     	0.25000      0.15000      0.90000E-01  0.38000    /
    118 'GENROU' 1     6.5000      0.60000E-01   0.65       0.20000      49.0000       0.0000       1.8000       1.7500      0.60000     1.7     	0.25000      0.15000      0.90000E-01  0.38000    /
    121 'GENROU' 1     6.5000      0.60000E-01   0.65       0.20000      49.0000       0.0000       1.8000       1.7500      0.60000     1.7     	0.25000      0.15000      0.90000E-01  0.38000    /
    122 'GENROU' 1     6.5000      0.60000E-01   0.65       0.20000      49.0000       0.0000       1.8000       1.7500      0.60000     1.7     	0.25000      0.15000      0.90000E-01  0.38000    /
    122 'GENROU' 2     6.5000      0.60000E-01   0.65       0.20000      49.0000       0.0000       1.8000       1.7500      0.60000     1.7     	0.25000      0.15000      0.90000E-01  0.38000    /
    122 'GENROU' 3     6.5000      0.60000E-01   0.65       0.20000      49.0000       0.0000       1.8000       1.7500      0.60000     1.7     	0.25000      0.15000      0.90000E-01  0.38000    /
    122 'GENROU' 4     6.5000      0.60000E-01   0.65       0.20000      49.0000       0.0000       1.8000       1.7500      0.60000     1.7     	0.25000      0.15000      0.90000E-01  0.38000    /
    122 'GENROU' 5     6.5000      0.60000E-01   0.65       0.20000      49.0000       0.0000       1.8000       1.7500      0.60000     1.7     	0.25000      0.15000      0.90000E-01  0.38000    /
    122 'GENROU' 6     6.5000      0.60000E-01   0.65       0.20000      49.0000       0.0000       1.8000       1.7500      0.60000     1.7     	0.25000      0.15000      0.90000E-01  0.38000    /
    123 'GENROU' 1     6.5000      0.60000E-01   0.65       0.20000      49.0000       0.0000       1.8000       1.7500      0.60000     1.7     	0.25000      0.15000      0.90000E-01  0.38000    /
    123 'GENROU' 2     6.5000      0.60000E-01   0.65       0.20000      49.0000       0.0000       1.8000       1.7500      0.60000     1.7     	0.25000      0.15000      0.90000E-01  0.38000    /
    123 'GENROU' 3     6.5000      0.60000E-01   0.65       0.20000      49.0000       0.0000       1.8000       1.7500      0.60000     1.7     	0.25000      0.15000      0.90000E-01  0.38000    /
    201 'GENROU' 1     6.5000      0.60000E-01   0.65       0.20000      49.0000       0.0000       1.8000       1.7500      0.60000     1.7     	0.25000      0.15000      0.90000E-01  0.38000    /
    201 'GENROU' 2     6.5000      0.60000E-01   0.65       0.20000      49.0000       0.0000       1.8000       1.7500      0.60000     1.7     	0.25000      0.15000      0.90000E-01  0.38000    /
    201 'GENROU' 3     6.5000      0.60000E-01   0.65       0.20000      49.0000       0.0000       1.8000       1.7500      0.60000     1.7     	0.25000      0.15000      0.90000E-01  0.38000    /
    201 'GENROU' 4     6.5000      0.60000E-01   0.65       0.20000      49.0000       0.0000       1.8000       1.7500      0.60000     1.7     	0.25000      0.15000      0.90000E-01  0.38000    /
    202 'GENROU' 1     6.5000      0.60000E-01   0.65       0.20000      49.0000       0.0000       1.8000       1.7500      0.60000     1.7     	0.25000      0.15000      0.90000E-01  0.38000    /
    202 'GENROU' 2     6.5000      0.60000E-01   0.65       0.20000      49.0000       0.0000       1.8000       1.7500      0.60000     1.7     	0.25000      0.15000      0.90000E-01  0.38000    /
    202 'GENROU' 3     6.5000      0.60000E-01   0.65       0.20000      49.0000       0.0000       1.8000       1.7500      0.60000     1.7     	0.25000      0.15000      0.90000E-01  0.38000    /
    202 'GENROU' 4     6.5000      0.60000E-01   0.65       0.20000      49.0000       0.0000       1.8000       1.7500      0.60000     1.7     	0.25000      0.15000      0.90000E-01  0.38000    /
    207 'GENROU' 1     6.5000      0.60000E-01   0.65       0.20000      49.0000       0.0000       1.8000       1.7500      0.60000     1.7     	0.25000      0.15000      0.90000E-01  0.38000    /
    207 'GENROU' 2     6.5000      0.60000E-01   0.65       0.20000      49.0000       0.0000       1.8000       1.7500      0.60000     1.7     	0.25000      0.15000      0.90000E-01  0.38000    /
    207 'GENROU' 3     6.5000      0.60000E-01   0.65       0.20000      49.0000       0.0000       1.8000       1.7500      0.60000     1.7     	0.25000      0.15000      0.90000E-01  0.38000    /
    213 'GENROU' 1     6.5000      0.60000E-01   0.65       0.20000      49.0000       0.0000       1.8000       1.7500      0.60000     1.7     	0.25000      0.15000      0.90000E-01  0.38000    /
    213 'GENROU' 2     6.5000      0.60000E-01   0.65       0.20000      49.0000       0.0000       1.8000       1.7500      0.60000     1.7     	0.25000      0.15000      0.90000E-01  0.38000    /
    213 'GENROU' 3     6.5000      0.60000E-01   0.65       0.20000      49.0000       0.0000       1.8000       1.7500      0.60000     1.7     	0.25000      0.15000      0.90000E-01  0.38000    /
    214 'GENROU' 1     6.5000      0.60000E-01   0.65       0.20000      49.0000       0.0000       1.8000       1.7500      0.60000     1.7     	0.25000      0.15000      0.90000E-01  0.38000    /
    215 'GENROU' 1     6.5000      0.60000E-01   0.65       0.20000      49.0000       0.0000       1.8000       1.7500      0.60000     1.7     	0.25000      0.15000      0.90000E-01  0.38000    /
    215 'GENROU' 2     6.5000      0.60000E-01   0.65       0.20000      49.0000       0.0000       1.8000       1.7500      0.60000     1.7     	0.25000      0.15000      0.90000E-01  0.38000    /
    215 'GENROU' 3     6.5000      0.60000E-01   0.65       0.20000      49.0000       0.0000       1.8000       1.7500      0.60000     1.7     	0.25000      0.15000      0.90000E-01  0.38000    /
    215 'GENROU' 4     6.5000      0.60000E-01   0.65       0.20000      49.0000       0.0000       1.8000       1.7500      0.60000     1.7     	0.25000      0.15000      0.90000E-01  0.38000    /
    215 'GENROU' 5     6.5000      0.60000E-01   0.65       0.20000      49.0000       0.0000       1.8000       1.7500      0.60000     1.7     	0.25000      0.15000      0.90000E-01  0.38000    /
    215 'GENROU' 6     6.5000      0.60000E-01   0.65       0.20000      49.0000       0.0000       1.8000       1.7500      0.60000     1.7     	0.25000      0.15000      0.90000E-01  0.38000    /
    216 'GENROU' 1     6.5000      0.60000E-01   0.65       0.20000      49.0000       0.0000       1.8000       1.7500      0.60000     1.7     	0.25000      0.15000      0.90000E-01  0.38000    /
    218 'GENROU' 1     6.5000      0.60000E-01   0.65       0.20000      49.0000       0.0000       1.8000       1.7500      0.60000     1.7     	0.25000      0.15000      0.90000E-01  0.38000    /
    221 'GENROU' 1     6.5000      0.60000E-01   0.65       0.20000      49.0000       0.0000       1.8000       1.7500      0.60000     1.7     	0.25000      0.15000      0.90000E-01  0.38000    /
    222 'GENROU' 1     6.5000      0.60000E-01   0.65       0.20000      49.0000       0.0000       1.8000       1.7500      0.60000     1.7     	0.25000      0.15000      0.90000E-01  0.38000    /
    222 'GENROU' 2     6.5000      0.60000E-01   0.65       0.20000      49.0000       0.0000       1.8000       1.7500      0.60000     1.7     	0.25000      0.15000      0.90000E-01  0.38000    /
    222 'GENROU' 3     6.5000      0.60000E-01   0.65       0.20000      49.0000       0.0000       1.8000       1.7500      0.60000     1.7     	0.25000      0.15000      0.90000E-01  0.38000    /
    222 'GENROU' 4     6.5000      0.60000E-01   0.65       0.20000      49.0000       0.0000       1.8000       1.7500      0.60000     1.7     	0.25000      0.15000      0.90000E-01  0.38000    /
    222 'GENROU' 5     6.5000      0.60000E-01   0.65       0.20000      49.0000       0.0000       1.8000       1.7500      0.60000     1.7     	0.25000      0.15000      0.90000E-01  0.38000    /
    222 'GENROU' 6     6.5000      0.60000E-01   0.65       0.20000      49.0000       0.0000       1.8000       1.7500      0.60000     1.7     	0.25000      0.15000      0.90000E-01  0.38000    /
    223 'GENROU' 1     6.5000      0.60000E-01   0.65       0.20000      49.0000       0.0000       1.8000       1.7500      0.60000     1.7     	0.25000      0.15000      0.90000E-01  0.38000    /
    223 'GENROU' 2     6.5000      0.60000E-01   0.65       0.20000      49.0000       0.0000       1.8000       1.7500      0.60000     1.7     	0.25000      0.15000      0.90000E-01  0.38000    /
    223 'GENROU' 3     6.5000      0.60000E-01   0.65       0.20000      49.0000       0.0000       1.8000       1.7500      0.60000     1.7     	0.25000      0.15000      0.90000E-01  0.38000    /
    301 'GENROU' 1     6.5000      0.60000E-01   0.65       0.20000      49.0000       0.0000       1.8000       1.7500      0.60000     1.7     	0.25000      0.15000      0.90000E-01  0.38000    /
    301 'GENROU' 2     6.5000      0.60000E-01   0.65       0.20000      49.0000       0.0000       1.8000       1.7500      0.60000     1.7     	0.25000      0.15000      0.90000E-01  0.38000    /
    301 'GENROU' 3     6.5000      0.60000E-01   0.65       0.20000      49.0000       0.0000       1.8000       1.7500      0.60000     1.7     	0.25000      0.15000      0.90000E-01  0.38000    /
    301 'GENROU' 4     6.5000      0.60000E-01   0.65       0.20000      49.0000       0.0000       1.8000       1.7500      0.60000     1.7     	0.25000      0.15000      0.90000E-01  0.38000    /
    302 'GENROU' 1     6.5000      0.60000E-01   0.65       0.20000      49.0000       0.0000       1.8000       1.7500      0.60000     1.7     	0.25000      0.15000      0.90000E-01  0.38000    /
    302 'GENROU' 2     6.5000      0.60000E-01   0.65       0.20000      49.0000       0.0000       1.8000       1.7500      0.60000     1.7     	0.25000      0.15000      0.90000E-01  0.38000    /
    302 'GENROU' 3     6.5000      0.60000E-01   0.65       0.20000      49.0000       0.0000       1.8000       1.7500      0.60000     1.7     	0.25000      0.15000      0.90000E-01  0.38000    /
    302 'GENROU' 4     6.5000      0.60000E-01   0.65       0.20000      49.0000       0.0000       1.8000       1.7500      0.60000     1.7     	0.25000      0.15000      0.90000E-01  0.38000    /
    307 'GENROU' 1     6.5000      0.60000E-01   0.65       0.20000      49.0000       0.0000       1.8000       1.7500      0.60000     1.7     	0.25000      0.15000      0.90000E-01  0.38000    /
    307 'GENROU' 2     6.5000      0.60000E-01   0.65       0.20000      49.0000       0.0000       1.8000       1.7500      0.60000     1.7     	0.25000      0.15000      0.90000E-01  0.38000    /
    307 'GENROU' 3     6.5000      0.60000E-01   0.65       0.20000      49.0000       0.0000       1.8000       1.7500      0.60000     1.7     	0.25000      0.15000      0.90000E-01  0.38000    /
    313 'GENROU' 1     6.5000      0.60000E-01   0.65       0.20000      49.0000       0.0000       1.8000       1.7500      0.60000     1.7     	0.25000      0.15000      0.90000E-01  0.38000    /
    313 'GENROU' 2     6.5000      0.60000E-01   0.65       0.20000      49.0000       0.0000       1.8000       1.7500      0.60000     1.7     	0.25000      0.15000      0.90000E-01  0.38000    /
    313 'GENROU' 3     6.5000      0.60000E-01   0.65       0.20000      49.0000       0.0000       1.8000       1.7500      0.60000     1.7     	0.25000      0.15000      0.90000E-01  0.38000    /
    314 'GENROU' 1     6.5000      0.60000E-01   0.65       0.20000      49.0000       0.0000       1.8000       1.7500      0.60000     1.7     	0.25000      0.15000      0.90000E-01  0.38000    /
    315 'GENROU' 1     6.5000      0.60000E-01   0.65       0.20000      49.0000       0.0000       1.8000       1.7500      0.60000     1.7     	0.25000      0.15000      0.90000E-01  0.38000    /
    315 'GENROU' 2     6.5000      0.60000E-01   0.65       0.20000      49.0000       0.0000       1.8000       1.7500      0.60000     1.7     	0.25000      0.15000      0.90000E-01  0.38000    /
    315 'GENROU' 3     6.5000      0.60000E-01   0.65       0.20000      49.0000       0.0000       1.8000       1.7500      0.60000     1.7     	0.25000      0.15000      0.90000E-01  0.38000    /
    315 'GENROU' 4     6.5000      0.60000E-01   0.65       0.20000      49.0000       0.0000       1.8000       1.7500      0.60000     1.7     	0.25000      0.15000      0.90000E-01  0.38000    /
    315 'GENROU' 5     6.5000      0.60000E-01   0.65       0.20000      49.0000       0.0000       1.8000       1.7500      0.60000     1.7     	0.25000      0.15000      0.90000E-01  0.38000    /
    315 'GENROU' 6     6.5000      0.60000E-01   0.65       0.20000      49.0000       0.0000       1.8000       1.7500      0.60000     1.7     	0.25000      0.15000      0.90000E-01  0.38000    /
    316 'GENROU' 1     6.5000      0.60000E-01   0.65       0.20000      49.0000       0.0000       1.8000       1.7500      0.60000     1.7     	0.25000      0.15000      0.90000E-01  0.38000    /
    318 'GENROU' 1     6.5000      0.60000E-01   0.65       0.20000      49.0000       0.0000       1.8000       1.7500      0.60000     1.7     	0.25000      0.15000      0.90000E-01  0.38000    /
    321 'GENROU' 1     6.5000      0.60000E-01   0.65       0.20000      49.0000       0.0000       1.8000       1.7500      0.60000     1.7     	0.25000      0.15000      0.90000E-01  0.38000    /
    322 'GENROU' 1     6.5000      0.60000E-01   0.65       0.20000      49.0000       0.0000       1.8000       1.7500      0.60000     1.7     	0.25000      0.15000      0.90000E-01  0.38000    /
    322 'GENROU' 2     6.5000      0.60000E-01   0.65       0.20000      49.0000       0.0000       1.8000       1.7500      0.60000     1.7     	0.25000      0.15000      0.90000E-01  0.38000    /
    322 'GENROU' 3     6.5000      0.60000E-01   0.65       0.20000      49.0000       0.0000       1.8000       1.7500      0.60000     1.7     	0.25000      0.15000      0.90000E-01  0.38000    /
    322 'GENROU' 4     6.5000      0.60000E-01   0.65       0.20000      49.0000       0.0000       1.8000       1.7500      0.60000     1.7     	0.25000      0.15000      0.90000E-01  0.38000    /
    322 'GENROU' 5     6.5000      0.60000E-01   0.65       0.20000      49.0000       0.0000       1.8000       1.7500      0.60000     1.7     	0.25000      0.15000      0.90000E-01  0.38000    /
    322 'GENROU' 6     6.5000      0.60000E-01   0.65       0.20000      49.0000       0.0000       1.8000       1.7500      0.60000     1.7     	0.25000      0.15000      0.90000E-01  0.38000    /
    323 'GENROU' 1     6.5000      0.60000E-01   0.65       0.20000      49.0000       0.0000       1.8000       1.7500      0.60000     1.7     	0.25000      0.15000      0.90000E-01  0.38000    /
    323 'GENROU' 2     6.5000      0.60000E-01   0.65       0.20000      49.0000       0.0000       1.8000       1.7500      0.60000     1.7     	0.25000      0.15000      0.90000E-01  0.38000    /
    323 'GENROU' 3     6.5000      0.60000E-01   0.65       0.20000      49.0000       0.0000       1.8000       1.7500      0.60000     1.7     	0.25000      0.15000      0.90000E-01  0.38000    /


	101 'EXST1'   1   0.02   0.2   0   1   1   80   0.05   8   -3   0.2   0.1   1   /
	101 'EXST1'   2   0.02   0.2   0   1   1   80   0.05   8   -3   0.2   0.1   1   /
	101 'EXST1'   3   0.02   0.2   0   1   1   80   0.05   8   -3   0.2   0.1   1   /
	101 'EXST1'   4   0.02   0.2   0   1   1   80   0.05   8   -3   0.2   0.1   1   /
	102 'EXST1'   1   0.02   0.2   0   1   1   80   0.05   8   -3   0.2   0.1   1   /
	102 'EXST1'   2   0.02   0.2   0   1   1   80   0.05   8   -3   0.2   0.1   1   /
	102 'EXST1'   3   0.02   0.2   0   1   1   80   0.05   8   -3   0.2   0.1   1   /
	102 'EXST1'   4   0.02   0.2   0   1   1   80   0.05   8   -3   0.2   0.1   1   /
	107 'EXST1'   1   0.02   0.2   0   1   1   80   0.05   8   -3   0.2   0.1   1   /
	107 'EXST1'   2   0.02   0.2   0   1   1   80   0.05   8   -3   0.2   0.1   1   /
	107 'EXST1'   3   0.02   0.2   0   1   1   80   0.05   8   -3   0.2   0.1   1   /
	113 'EXST1'   1   0.02   0.2   0   1   1   80   0.05   8   -3   0.2   0.1   1   /
	113 'EXST1'   2   0.02   0.2   0   1   1   80   0.05   8   -3   0.2   0.1   1   /
	113 'EXST1'   3   0.02   0.2   0   1   1   80   0.05   8   -3   0.2   0.1   1   /
	114 'EXST1'   1   0.02   0.2   0   1   1   80   0.05   8   -3   0.2   0.1   1   /
	115 'EXST1'   1   0.02   0.2   0   1   1   80   0.05   8   -3   0.2   0.1   1   /
	115 'EXST1'   2   0.02   0.2   0   1   1   80   0.05   8   -3   0.2   0.1   1   /
	115 'EXST1'   3   0.02   0.2   0   1   1   80   0.05   8   -3   0.2   0.1   1   /
	115 'EXST1'   4   0.02   0.2   0   1   1   80   0.05   8   -3   0.2   0.1   1   /
	115 'EXST1'   5   0.02   0.2   0   1   1   80   0.05   8   -3   0.2   0.1   1   /
	115 'EXST1'   6   0.02   0.2   0   1   1   80   0.05   8   -3   0.2   0.1   1   /
	116 'EXST1'   1   0.02   0.2   0   1   1   80   0.05   8   -3   0.2   0.1   1   /
	118 'EXST1'   1   0.02   0.2   0   1   1   80   0.05   8   -3   0.2   0.1   1   /
	121 'EXST1'   1   0.02   0.2   0   1   1   80   0.05   8   -3   0.2   0.1   1   /
	122 'EXST1'   1   0.02   0.2   0   1   1   80   0.05   8   -3   0.2   0.1   1   /
	122 'EXST1'   2   0.02   0.2   0   1   1   80   0.05   8   -3   0.2   0.1   1   /
	122 'EXST1'   3   0.02   0.2   0   1   1   80   0.05   8   -3   0.2   0.1   1   /
	122 'EXST1'   4   0.02   0.2   0   1   1   80   0.05   8   -3   0.2   0.1   1   /
	122 'EXST1'   5   0.02   0.2   0   1   1   80   0.05   8   -3   0.2   0.1   1   /
	122 'EXST1'   6   0.02   0.2   0   1   1   80   0.05   8   -3   0.2   0.1   1   /
	123 'EXST1'   1   0.02   0.2   0   1   1   80   0.05   8   -3   0.2   0.1   1   /
	123 'EXST1'   2   0.02   0.2   0   1   1   80   0.05   8   -3   0.2   0.1   1   /
	123 'EXST1'   3   0.02   0.2   0   1   1   80   0.05   8   -3   0.2   0.1   1   /
	201 'EXST1'   1   0.02   0.2   0   1   1   80   0.05   8   -3   0.2   0.1   1   /
	201 'EXST1'   2   0.02   0.2   0   1   1   80   0.05   8   -3   0.2   0.1   1   /
	201 'EXST1'   3   0.02   0.2   0   1   1   80   0.05   8   -3   0.2   0.1   1   /
	201 'EXST1'   4   0.02   0.2   0   1   1   80   0.05   8   -3   0.2   0.1   1   /
	202 'EXST1'   1   0.02   0.2   0   1   1   80   0.05   8   -3   0.2   0.1   1   /
	202 'EXST1'   2   0.02   0.2   0   1   1   80   0.05   8   -3   0.2   0.1   1   /
	202 'EXST1'   3   0.02   0.2   0   1   1   80   0.05   8   -3   0.2   0.1   1   /
	202 'EXST1'   4   0.02   0.2   0   1   1   80   0.05   8   -3   0.2   0.1   1   /
	207 'EXST1'   1   0.02   0.2   0   1   1   80   0.05   8   -3   0.2   0.1   1   /
	207 'EXST1'   2   0.02   0.2   0   1   1   80   0.05   8   -3   0.2   0.1   1   /
	207 'EXST1'   3   0.02   0.2   0   1   1   80   0.05   8   -3   0.2   0.1   1   /
	213 'EXST1'   1   0.02   0.2   0   1   1   80   0.05   8   -3   0.2   0.1   1   /
	213 'EXST1'   2   0.02   0.2   0   1   1   80   0.05   8   -3   0.2   0.1   1   /
	213 'EXST1'   3   0.02   0.2   0   1   1   80   0.05   8   -3   0.2   0.1   1   /
	214 'EXST1'   1   0.02   0.2   0   1   1   80   0.05   8   -3   0.2   0.1   1   /
	215 'EXST1'   1   0.02   0.2   0   1   1   80   0.05   8   -3   0.2   0.1   1   /
	215 'EXST1'   2   0.02   0.2   0   1   1   80   0.05   8   -3   0.2   0.1   1   /
	215 'EXST1'   3   0.02   0.2   0   1   1   80   0.05   8   -3   0.2   0.1   1   /
	215 'EXST1'   4   0.02   0.2   0   1   1   80   0.05   8   -3   0.2   0.1   1   /
	215 'EXST1'   5   0.02   0.2   0   1   1   80   0.05   8   -3   0.2   0.1   1   /
	215 'EXST1'   6   0.02   0.2   0   1   1   80   0.05   8   -3   0.2   0.1   1   /
	216 'EXST1'   1   0.02   0.2   0   1   1   80   0.05   8   -3   0.2   0.1   1   /
	218 'EXST1'   1   0.02   0.2   0   1   1   80   0.05   8   -3   0.2   0.1   1   /
	221 'EXST1'   1   0.02   0.2   0   1   1   80   0.05   8   -3   0.2   0.1   1   /
	222 'EXST1'   1   0.02   0.2   0   1   1   80   0.05   8   -3   0.2   0.1   1   /
	222 'EXST1'   2   0.02   0.2   0   1   1   80   0.05   8   -3   0.2   0.1   1   /
	222 'EXST1'   3   0.02   0.2   0   1   1   80   0.05   8   -3   0.2   0.1   1   /
	222 'EXST1'   4   0.02   0.2   0   1   1   80   0.05   8   -3   0.2   0.1   1   /
	222 'EXST1'   5   0.02   0.2   0   1   1   80   0.05   8   -3   0.2   0.1   1   /
	222 'EXST1'   6   0.02   0.2   0   1   1   80   0.05   8   -3   0.2   0.1   1   /
	223 'EXST1'   1   0.02   0.2   0   1   1   80   0.05   8   -3   0.2   0.1   1   /
	223 'EXST1'   2   0.02   0.2   0   1   1   80   0.05   8   -3   0.2   0.1   1   /
	223 'EXST1'   3   0.02   0.2   0   1   1   80   0.05   8   -3   0.2   0.1   1   /
	301 'EXST1'   1   0.02   0.2   0   1   1   80   0.05   8   -3   0.2   0.1   1   /
	301 'EXST1'   2   0.02   0.2   0   1   1   80   0.05   8   -3   0.2   0.1   1   /
	301 'EXST1'   3   0.02   0.2   0   1   1   80   0.05   8   -3   0.2   0.1   1   /
	301 'EXST1'   4   0.02   0.2   0   1   1   80   0.05   8   -3   0.2   0.1   1   /
	302 'EXST1'   1   0.02   0.2   0   1   1   80   0.05   8   -3   0.2   0.1   1   /
	302 'EXST1'   2   0.02   0.2   0   1   1   80   0.05   8   -3   0.2   0.1   1   /
	302 'EXST1'   3   0.02   0.2   0   1   1   80   0.05   8   -3   0.2   0.1   1   /
	302 'EXST1'   4   0.02   0.2   0   1   1   80   0.05   8   -3   0.2   0.1   1   /
	307 'EXST1'   1   0.02   0.2   0   1   1   80   0.05   8   -3   0.2   0.1   1   /
	307 'EXST1'   2   0.02   0.2   0   1   1   80   0.05   8   -3   0.2   0.1   1   /
	307 'EXST1'   3   0.02   0.2   0   1   1   80   0.05   8   -3   0.2   0.1   1   /
	313 'EXST1'   1   0.02   0.2   0   1   1   80   0.05   8   -3   0.2   0.1   1   /
	313 'EXST1'   2   0.02   0.2   0   1   1   80   0.05   8   -3   0.2   0.1   1   /
	313 'EXST1'   3   0.02   0.2   0   1   1   80   0.05   8   -3   0.2   0.1   1   /
	314 'EXST1'   1   0.02   0.2   0   1   1   80   0.05   8   -3   0.2   0.1   1   /
	315 'EXST1'   1   0.02   0.2   0   1   1   80   0.05   8   -3   0.2   0.1   1   /
	315 'EXST1'   2   0.02   0.2   0   1   1   80   0.05   8   -3   0.2   0.1   1   /
	315 'EXST1'   3   0.02   0.2   0   1   1   80   0.05   8   -3   0.2   0.1   1   /
	315 'EXST1'   4   0.02   0.2   0   1   1   80   0.05   8   -3   0.2   0.1   1   /
	315 'EXST1'   5   0.02   0.2   0   1   1   80   0.05   8   -3   0.2   0.1   1   /
	315 'EXST1'   6   0.02   0.2   0   1   1   80   0.05   8   -3   0.2   0.1   1   /
	316 'EXST1'   1   0.02   0.2   0   1   1   80   0.05   8   -3   0.2   0.1   1   /
	318 'EXST1'   1   0.02   0.2   0   1   1   80   0.05   8   -3   0.2   0.1   1   /
	321 'EXST1'   1   0.02   0.2   0   1   1   80   0.05   8   -3   0.2   0.1   1   /
	322 'EXST1'   1   0.02   0.2   0   1   1   80   0.05   8   -3   0.2   0.1   1   /
	322 'EXST1'   2   0.02   0.2   0   1   1   80   0.05   8   -3   0.2   0.1   1   /
	322 'EXST1'   3   0.02   0.2   0   1   1   80   0.05   8   -3   0.2   0.1   1   /
	322 'EXST1'   4   0.02   0.2   0   1   1   80   0.05   8   -3   0.2   0.1   1   /
	322 'EXST1'   5   0.02   0.2   0   1   1   80   0.05   8   -3   0.2   0.1   1   /
	322 'EXST1'   6   0.02   0.2   0   1   1   80   0.05   8   -3   0.2   0.1   1   /
	323 'EXST1'   1   0.02   0.2   0   1   1   80   0.05   8   -3   0.2   0.1   1   /
	323 'EXST1'   2   0.02   0.2   0   1   1   80   0.05   8   -3   0.2   0.1   1   /
	323 'EXST1'   3   0.02   0.2   0   1   1   80   0.05   8   -3   0.2   0.1   1   /
	
	
/ bus, model, id, R, T1 (>0)(sec), Vmax, Vmin, T2 (sec), T3 (>0)(sec), Dt
	101 'TGOV1', 1, 0.001, 0.1, 5, 0,   1,     5, 0.1 /
	101 'TGOV1', 2, 0.001, 0.1, 5, 0,   1,     5, 0.1 /	
	101 'TGOV1', 3, 0.001, 0.1, 5, 0,   1,     5, 0.1 /
	101 'TGOV1', 4, 0.001, 0.1, 5, 0,   1,     5, 0.1 /
	102 'TGOV1', 1, 0.001, 0.1, 5, 0,   1,     5, 0.1 /
	102 'TGOV1', 2, 0.001, 0.1, 5, 0,   1,     5, 0.1 /	
	102 'TGOV1', 3, 0.001, 0.1, 5, 0,   1,     5, 0.1 /
	102 'TGOV1', 4, 0.001, 0.1, 5, 0,   1,     5, 0.1 /
	107 'TGOV1', 1, 0.001, 0.1, 5, 0,   1,     5, 0.1 /
	107 'TGOV1', 2, 0.001, 0.1, 5, 0,   1,     5, 0.1 /	
	107 'TGOV1', 3, 0.001, 0.1, 5, 0,   1,     5, 0.1 /
	113 'TGOV1', 1, 0.001, 0.1, 5, 0,   1,     5, 0.1 /
	113 'TGOV1', 2, 0.001, 0.1, 5, 0,   1,     5, 0.1 /	
	113 'TGOV1', 3, 0.001, 0.1, 5, 0,   1,     5, 0.1 /
	114 'TGOV1', 1, 0.001, 0.1, 5, 0,   1,     5, 0.1 /
	115 'TGOV1', 1, 0.001, 0.1, 5, 0,   1,     5, 0.1 /
	115 'TGOV1', 2, 0.001, 0.1, 5, 0,   1,     5, 0.1 /	
	115 'TGOV1', 3, 0.001, 0.1, 5, 0,   1,     5, 0.1 /
	115 'TGOV1', 4, 0.001, 0.1, 5, 0,   1,     5, 0.1 /
	115 'TGOV1', 5, 0.001, 0.1, 5, 0,   1,     5, 0.1 /
	115 'TGOV1', 6, 0.001, 0.1, 5, 0,   1,     5, 0.1 /
	116 'TGOV1', 1, 0.001, 0.1, 5, 0,   1,     5, 0.1 /
	118 'TGOV1', 1, 0.001, 0.1, 5, 0,   1,     5, 0.1 /
	121 'TGOV1', 1, 0.001, 0.1, 5, 0,   1,     5, 0.1 /
	122 'TGOV1', 1, 0.001, 0.1, 5, 0,   1,     5, 0.1 /
	122 'TGOV1', 2, 0.001, 0.1, 5, 0,   1,     5, 0.1 /	
	122 'TGOV1', 3, 0.001, 0.1, 5, 0,   1,     5, 0.1 /
	122 'TGOV1', 4, 0.001, 0.1, 5, 0,   1,     5, 0.1 /
	122 'TGOV1', 5, 0.001, 0.1, 5, 0,   1,     5, 0.1 /
	122 'TGOV1', 6, 0.001, 0.1, 5, 0,   1,     5, 0.1 /
	123 'TGOV1', 1, 0.001, 0.1, 5, 0,   1,     5, 0.1 /
	123 'TGOV1', 2, 0.001, 0.1, 5, 0,   1,     5, 0.1 /	
	123 'TGOV1', 3, 0.001, 0.1, 5, 0,   1,     5, 0.1 /
	201 'TGOV1', 1, 0.001, 0.1, 5, 0,   1,     5, 0.1 /
	201 'TGOV1', 2, 0.001, 0.1, 5, 0,   1,     5, 0.1 /	
	201 'TGOV1', 3, 0.001, 0.1, 5, 0,   1,     5, 0.1 /
	201 'TGOV1', 4, 0.001, 0.1, 5, 0,   1,     5, 0.1 /
	202 'TGOV1', 1, 0.001, 0.1, 5, 0,   1,     5, 0.1 /
	202 'TGOV1', 2, 0.001, 0.1, 5, 0,   1,     5, 0.1 /	